LTspice 26.0.1 for Windows
Circuit: C:\Users\USER\Downloads\eda_system\eda_system\output\common_emitter.cir
Start Time: Mon Apr 13 12:35:22 2026
More than one analysis specified.