LTspice 26.0.1 for Windows
Circuit: C:\Users\USER\Downloads\eda_system\eda_system\output\rc_filter.cir
Start Time: Mon Apr 13 12:34:44 2026
solver = Normal
Maximum thread count: 16
tnom = 27
temp = 27
method = trap
.OP point found by inspection.
.OP point found by inspection.
Total elapsed time: 0.030 seconds.

Files loaded:
C:\Users\USER\Downloads\eda_system\eda_system\output\rc_filter.cir

