LTspice 26.0.1 for Windows
Circuit: C:\Users\USER\Downloads\eda_system\eda_system\output\voltage_divider_bias.cir
Start Time: Mon Apr 13 13:01:05 2026
solver = Normal
Maximum thread count: 16
tnom = 27
temp = 27
method = trap
Direct Newton iteration succeeded in finding operating point.
Total elapsed time: 0.033 seconds.

Files loaded:
C:\Users\USER\Downloads\eda_system\eda_system\output\voltage_divider_bias.cir

